Circuit: * Z:\home\sebastian\Documentos\Utn\4to\tcII\Tp1\ej1_b.asc

Direct Newton iteration for .op point succeeded.
Ignoring empty pin current: Ix(u1:1)
Ignoring empty pin current: Ix(u1:2)
Ignoring empty pin current: Ix(u1:1)
Ignoring empty pin current: Ix(u1:2)

Date: Fri Apr 16 18:56:38 2021
Total elapsed time: 0.019 seconds.

tnom = 27
temp = 27
method = modified trap
totiter = 151
traniter = 148
tranpoints = 75
accept = 75
rejected = 0
matrix size = 4
fillins = 0
solver = Normal
Matrix Compiler1: 100 bytes object code size  0.1/0.1/[0.0]
Matrix Compiler2: off  [0.0]/0.1/0.1


